data_HKUST1_021724_refined
_audit_creation_date              2025-02-18
_audit_creation_method            'Materials Studio'
_symmetry_space_group_name_H-M    'FM-3M'
_symmetry_Int_Tables_number       225
_symmetry_cell_setting            cubic
loop_
_symmetry_equiv_pos_as_xyz
  x,y,z
  -x,-y,z
  -x,y,-z
  x,-y,-z
  z,x,y
  z,-x,-y
  -z,-x,y
  -z,x,-y
  y,z,x
  -y,z,-x
  y,-z,-x
  -y,-z,x
  y,x,-z
  -y,-x,-z
  y,-x,z
  -y,x,z
  x,z,-y
  -x,z,y
  -x,-z,-y
  x,-z,y
  z,y,-x
  z,-y,x
  -z,y,x
  -z,-y,-x
  -x,-y,-z
  x,y,-z
  x,-y,z
  -x,y,z
  -z,-x,-y
  -z,x,y
  z,x,-y
  z,-x,y
  -y,-z,-x
  y,-z,x
  -y,z,x
  y,z,-x
  -y,-x,z
  y,x,z
  -y,x,-z
  y,-x,-z
  -x,-z,y
  x,-z,-y
  x,z,y
  -x,z,-y
  -z,-y,x
  -z,y,-x
  z,-y,-x
  z,y,x
  x,y+1/2,z+1/2
  -x,-y+1/2,z+1/2
  -x,y+1/2,-z+1/2
  x,-y+1/2,-z+1/2
  z,x+1/2,y+1/2
  z,-x+1/2,-y+1/2
  -z,-x+1/2,y+1/2
  -z,x+1/2,-y+1/2
  y,z+1/2,x+1/2
  -y,z+1/2,-x+1/2
  y,-z+1/2,-x+1/2
  -y,-z+1/2,x+1/2
  y,x+1/2,-z+1/2
  -y,-x+1/2,-z+1/2
  y,-x+1/2,z+1/2
  -y,x+1/2,z+1/2
  x,z+1/2,-y+1/2
  -x,z+1/2,y+1/2
  -x,-z+1/2,-y+1/2
  x,-z+1/2,y+1/2
  z,y+1/2,-x+1/2
  z,-y+1/2,x+1/2
  -z,y+1/2,x+1/2
  -z,-y+1/2,-x+1/2
  -x,-y+1/2,-z+1/2
  x,y+1/2,-z+1/2
  x,-y+1/2,z+1/2
  -x,y+1/2,z+1/2
  -z,-x+1/2,-y+1/2
  -z,x+1/2,y+1/2
  z,x+1/2,-y+1/2
  z,-x+1/2,y+1/2
  -y,-z+1/2,-x+1/2
  y,-z+1/2,x+1/2
  -y,z+1/2,x+1/2
  y,z+1/2,-x+1/2
  -y,-x+1/2,z+1/2
  y,x+1/2,z+1/2
  -y,x+1/2,-z+1/2
  y,-x+1/2,-z+1/2
  -x,-z+1/2,y+1/2
  x,-z+1/2,-y+1/2
  x,z+1/2,y+1/2
  -x,z+1/2,-y+1/2
  -z,-y+1/2,x+1/2
  -z,y+1/2,-x+1/2
  z,-y+1/2,-x+1/2
  z,y+1/2,x+1/2
  x+1/2,y,z+1/2
  -x+1/2,-y,z+1/2
  -x+1/2,y,-z+1/2
  x+1/2,-y,-z+1/2
  z+1/2,x,y+1/2
  z+1/2,-x,-y+1/2
  -z+1/2,-x,y+1/2
  -z+1/2,x,-y+1/2
  y+1/2,z,x+1/2
  -y+1/2,z,-x+1/2
  y+1/2,-z,-x+1/2
  -y+1/2,-z,x+1/2
  y+1/2,x,-z+1/2
  -y+1/2,-x,-z+1/2
  y+1/2,-x,z+1/2
  -y+1/2,x,z+1/2
  x+1/2,z,-y+1/2
  -x+1/2,z,y+1/2
  -x+1/2,-z,-y+1/2
  x+1/2,-z,y+1/2
  z+1/2,y,-x+1/2
  z+1/2,-y,x+1/2
  -z+1/2,y,x+1/2
  -z+1/2,-y,-x+1/2
  -x+1/2,-y,-z+1/2
  x+1/2,y,-z+1/2
  x+1/2,-y,z+1/2
  -x+1/2,y,z+1/2
  -z+1/2,-x,-y+1/2
  -z+1/2,x,y+1/2
  z+1/2,x,-y+1/2
  z+1/2,-x,y+1/2
  -y+1/2,-z,-x+1/2
  y+1/2,-z,x+1/2
  -y+1/2,z,x+1/2
  y+1/2,z,-x+1/2
  -y+1/2,-x,z+1/2
  y+1/2,x,z+1/2
  -y+1/2,x,-z+1/2
  y+1/2,-x,-z+1/2
  -x+1/2,-z,y+1/2
  x+1/2,-z,-y+1/2
  x+1/2,z,y+1/2
  -x+1/2,z,-y+1/2
  -z+1/2,-y,x+1/2
  -z+1/2,y,-x+1/2
  z+1/2,-y,-x+1/2
  z+1/2,y,x+1/2
  x+1/2,y+1/2,z
  -x+1/2,-y+1/2,z
  -x+1/2,y+1/2,-z
  x+1/2,-y+1/2,-z
  z+1/2,x+1/2,y
  z+1/2,-x+1/2,-y
  -z+1/2,-x+1/2,y
  -z+1/2,x+1/2,-y
  y+1/2,z+1/2,x
  -y+1/2,z+1/2,-x
  y+1/2,-z+1/2,-x
  -y+1/2,-z+1/2,x
  y+1/2,x+1/2,-z
  -y+1/2,-x+1/2,-z
  y+1/2,-x+1/2,z
  -y+1/2,x+1/2,z
  x+1/2,z+1/2,-y
  -x+1/2,z+1/2,y
  -x+1/2,-z+1/2,-y
  x+1/2,-z+1/2,y
  z+1/2,y+1/2,-x
  z+1/2,-y+1/2,x
  -z+1/2,y+1/2,x
  -z+1/2,-y+1/2,-x
  -x+1/2,-y+1/2,-z
  x+1/2,y+1/2,-z
  x+1/2,-y+1/2,z
  -x+1/2,y+1/2,z
  -z+1/2,-x+1/2,-y
  -z+1/2,x+1/2,y
  z+1/2,x+1/2,-y
  z+1/2,-x+1/2,y
  -y+1/2,-z+1/2,-x
  y+1/2,-z+1/2,x
  -y+1/2,z+1/2,x
  y+1/2,z+1/2,-x
  -y+1/2,-x+1/2,z
  y+1/2,x+1/2,z
  -y+1/2,x+1/2,-z
  y+1/2,-x+1/2,-z
  -x+1/2,-z+1/2,y
  x+1/2,-z+1/2,-y
  x+1/2,z+1/2,y
  -x+1/2,z+1/2,-y
  -z+1/2,-y+1/2,x
  -z+1/2,y+1/2,-x
  z+1/2,-y+1/2,-x
  z+1/2,y+1/2,x
_cell_length_a                    26.3893
_cell_length_b                    26.3893
_cell_length_c                    26.3893
_cell_angle_alpha                 90.0000
_cell_angle_beta                  90.0000
_cell_angle_gamma                 90.0000
loop_
_atom_site_label
_atom_site_type_symbol
_atom_site_fract_x
_atom_site_fract_y
_atom_site_fract_z
_atom_site_U_iso_or_equiv
_atom_site_adp_type
_atom_site_occupancy
O1     O     0.31312  -0.74402  -0.44929   0.01267  Uiso   1.00
C1     C     0.36368  -0.69994  -0.36368   0.01267  Uiso   1.00
H1     H     0.37945  -0.73299  -0.37945   0.01267  Uiso   1.00
C25    C     0.29566  -0.70434  -0.43065   0.01267  Uiso   1.00
C49    C     0.32065  -0.67935  -0.38600   0.01267  Uiso   1.00
Cu1    Cu    0.78367  -0.78367  -1.00000   0.01267  Uiso   1.00
loop_
_geom_bond_atom_site_label_1
_geom_bond_atom_site_label_2
_geom_bond_distance
_geom_bond_site_symmetry_2
_ccdc_geom_bond_type
O1     C25     1.245   .     S
O1     Cu1     1.868   97_455 S
C1     C49     1.390   .     S
C1     C49     1.390   8_544 S
C1     H1      1.052   .     S
C25    O1      1.245   38_645 S
C25    C49     1.503   .     S
C49    C1      1.390   11_645 S
Cu1    O1      1.868   85_544 S
Cu1    O1      1.868   122_553 S
Cu1    O1      1.868   62_543 S
Cu1    O1      1.868   97_554 S
Cu1    Cu1     2.513   146_635 S
Cu1    O       1.821   52_533 S
O      Cu1     1.821   52_533 S
